"channel_dev"
1 1 1 0 0 0
# File section:
#=========================
"prog",6,"hours",1,"hours","Time",
#"prog_2d",5,"days",1,"days","Time",
"ocean_static",          -1, "months", 1, "days", "time"

# Field section:
#=========================

"ocean_model", "areacello",   "areacello",   "ocean_static", "all", "none", "none", 2

#"ocean_model",	"u",		"u",		"prog",		"all","none","none",2
#"ocean_model",	"v",		"v",		"prog",		"all","none","none",2
#"ocean_model",	"PV",		"PV",		"prog",		"all","none","none",2
"ocean_model",	"temp",		"temp",		"prog",		"all","none","none",2
"ocean_model",	"salt",		"salt",		"prog",		"all","none","none",2
"ocean_model",	"RV",		"RV",		"prog",		"all","none","none",2

"ocean_model",	"rhopot2",	"rhopot2",	"prog",		"all","none","none",2
"ocean_model",	"e",		"e",		"prog",		"all","none","none",2
"ocean_model",	"thkcello",	"thkcello",	"prog",		"all","none","none",2

#"ocean_model",	"SSH",		"SSH",		"prog",		"all","none","none",2
#"ocean_model",	"heat_added",	"heat_added",	"prog_2d",	"all","none","none",2
