/* This input file provides the adjustable run-time parameters for version 6 of the Modular Ocean Model (MOM6), a numerical ocean model developed at NOAA-GFDL. Where appropriate, parameters are given in MKS units.

This particular file is for the configuration "channel".

This MOM_input file typically contains only the non-default values that are needed to reproduce this configuration.  A full list of parameters for this configuration can be found in the corresponding MOM_parameter_doc.all file which is generated by the model at run-time.

Created on 22/08/19 by Graeme MacGilchrist [graemem@princeton.edu] */

! === module MOM ===
ENABLE_THERMODYNAMICS = True    !   [Boolean] default = True
ADIABATIC = False               !   [Boolean] default = False
DT = 450.0                      !   [s]
USE_REGRIDDING = True           !   [Boolean] default = False
BULKMIXEDLAYER = False          !

!=== module MOM_domains ===
REENTRANT_X = True              !   [Boolean] default = True
REENTRANT_Y = False             !   [Boolean] default = True
NIGLOBAL = 240                  !
NJGLOBAL = 160                  !

!=== module MOM_verticalGrid ===
NK = 50                         !   

! === module MOM_fixed_initialization ===
INPUTDIR = "INPUT"              !   default = "."

! === module MOM_coord_initialization ===
COORD_CONFIG = "ALE"            !
!COORD_FILE = "ts_uniform_1deg.nc"  !
REGRIDDING_COORDINATE_MODE="HYCOM1" !
ALE_COORDINATE_CONFIG="HYBRID:hycom1_50.nc,sigma2,dz" !

! === module MOM_grid_init ===
GRID_CONFIG = "mercator"       !
ISOTROPIC = True               !
AXIS_UNITS = "degrees"          !   default = "degrees"
SOUTHLAT = -65.0                !   [k]
LENLAT = 40.0                   !   [k]
WESTLON = 0.0                   !   [k]
LENLON = 60.0                   !   [k]
TOPO_CONFIG = "file"            !
TOPO_FILE = "4th-deg_topography.nc"!
TOPO_VARNAME = "depth"          !
MINIMUM_DEPTH = 0.0             !   [m] default = 0.0
MAXIMUM_DEPTH = 4000.0          !   [m]

! === module MOM_state_initialization ===
THICKNESS_CONFIG = "coord"      !
VELOCITY_CONFIG = "zero"        !
VELOCITY_FILE = "4th-deg_velocity.nc" !
!INITIAL_U_CONST = 0.5           !   [m s-1]
!INITIAL_V_CONST = 0             !   [m s-1]
TS_CONFIG = "file"              !
TEMP_IC_VAR = "T"     !
SALT_IC_VAR = "S"     !
TS_FILE = "4th-deg_TS.nc"       !
SPONGE = True                    !
SPONGE_CONFIG = "file"           !
SPONGE_STATE_FILE = "4th-deg_sponge.nc"  !
SPONGE_ETA_VAR = "eta"           !
SPONGE_PTEMP_VAR = "T" !
SPONGE_SALT_VAR = "S"  !
SPONGE_DAMPING_FILE = "4th-deg_sponge.nc"!
SPONGE_IDAMP_VAR = "idamp"       !

! === module MOM_tracer_flow_control ===
!USE_generic_tracer=True         !

! === module MOM_CoriolisAdv ===
BOUND_CORIOLIS = True            !
CORIOLIS_SCHEME = "SADOURNY75_ENSTRO" !

! === module MOM_set_visc ===
BOTTOMDRAGLAW = True            !   [Boolean] default = True
! LINEAR_DRAG = True              !
DRAG_BG_VEL = 0.01              !   [m s-1]
HBBL = 10                       !   [m]
CDRAG = 0.003                   !   [nondim] default = 0.003
KV = 1.0E-04                    !   [m2 s-1]


! === module MOM_hor_visc ===
LAPLACIAN = False               !   [Boolean] default = False
BIHARMONIC = True               !   [Boolean] default = True
AH = 0.0                        !   [m4 s-1] default = 0.0
AH_VEL_SCALE = 0.01              !   [m s-1] default = 0.0
SMAGORINSKY_AH = True           !   [Boolean] default = False
SMAG_BI_CONST = 0.015            !   [nondim] default = 0.0

! === module MOM_vert_friction ===
HARMONIC_VISC = False           !   [Boolean] default = False
HMIX_FIXED = 0.5                !   [m]
!KVML = 1.0E-02                 !   [m2 s-1] default = 1.0E-04
USE_JACKSON_PARAM = True        !
VERTEX_SHEAR = True             !

! === module MOM_barotropic ===
BT_PROJECT_VELOCITY = True      !   [Boolean] default = False
BOUND_BT_CORRECTION = True      !
BEBT = 0.1                      !   [nondim] default = 0.1
DTBT = 0                        !   [s or nondim] default = -0.98

! === module MOM_bkgnd_mixing ===
KD = 1.0E-07                        !   [m2 s-1]
! KD_MIN = 1.0E-06                !   [m2 s-1] default = 1.0E-06

! === module MOM_surface_forcing ===
VARIABLE_WINDS = False          !   [Boolean] default = True
VARIABLE_BUOYFORCE = False      !   [Boolean] default = True
BUOY_CONFIG = "file"            !
ARCHAIC_OMIP_FORCING_FILE = False !
WIND_CONFIG = "file"            !
WIND_FILE = "4th-deg_wind.nc" !
WINDSTRESS_X_VAR = "taux"       !
WINDSTRESS_Y_VAR = "tauy"       !
RESTOREBUOY = True             !
SSTRESTORE_FILE = "4th-deg_TS.nc"      !
SALINITYRESTORE_FILE = "4th-deg_TS.nc" !
SST_RESTORE_VAR = "SST"              !
SSS_RESTORE_VAR = "SSS"              !
FLUXCONST = 0.3333                         ! [m day-1] Like a piston velocity
LONGWAVE_FILE = "4th-deg_buoyancy.nc"     !
SHORTWAVE_FILE = "4th-deg_buoyancy.nc"    !
EVAPORATION_FILE = "4th-deg_buoyancy.nc"  !
LATENTHEAT_FILE = "4th-deg_buoyancy.nc"   !
SENSIBLEHEAT_FILE = "4th-deg_buoyancy.nc" !
RAIN_FILE = "4th-deg_buoyancy.nc"         !
SNOW_FILE = "4th-deg_buoyancy.nc"         !
RUNOFF_FILE = "4th-deg_buoyancy.nc"       !

! === module MOM_sum_output ===
DATE_STAMPED_STDOUT = False     !   [Boolean] default = True

! === module MOM_main (MOM_driver) ===
DAYMAX = 1.0               !   [days] default = 10.0
RESTART_CONTROL = 0             !   default = 1
